/*--------------------------------*- C++ -*----------------------------------*\
  =========                 |
  \\      /  F ield         | OpenFOAM: The Open Source CFD Toolbox
   \\    /   O peration     | Website:  https://openfoam.org
    \\  /    A nd           | Version:  6
     \\/     M anipulation  |
\*---------------------------------------------------------------------------*/
FoamFile
{
    version     2.0;
    format      ascii;
    class       volScalarField;
    location    "0/topAir";
    object      epsilon;
}
// * * * * * * * * * * * * * * * * * * * * * * * * * * * * * * * * * * * * * //

dimensions      [ 0 2 -3 0 0 0 0 ];

internalField   uniform 0.01;

boundaryField
{
    #includeEtc "caseDicts/setConstraintTypes"
    inlet
    {
        type            fixedValue;
        value           uniform 0.1;
    }
    
    outlet
    {
        type            fixedValue;
        value           uniform 0.1;
    }
    
    walls
    {
        type            zeroGradient;
        
    }


    minX
    {
        type            fixedValue;
        value           $internalField;
    }
    maxX
    {
        type            inletOutlet;
        value           $internalField;
        inletValue      $internalField;
    }
    "(min|max)(Y|Z)"
    {
        type            epsilonWallFunction;
        value           $internalField;
    }
    "topAir_to_.*"
    {
        type            epsilonWallFunction;
        value           $internalField;
    }
}


// ************************************************************************* //
