/*--------------------------------*- C++ -*----------------------------------*\
  =========                 |
  \\      /  F ield         | OpenFOAM: The Open Source CFD Toolbox
   \\    /   O peration     | Website:  https://openfoam.org
    \\  /    A nd           | Version:  11
     \\/     M anipulation  |
\*---------------------------------------------------------------------------*/
FoamFile
{
    format      ascii;
    class       polyBoundaryMesh;
    location    "constant/polyMesh";
    object      boundary;
}
// * * * * * * * * * * * * * * * * * * * * * * * * * * * * * * * * * * * * * //

4
(
    inlet
    {
        type            wall;
        inGroups        List<word> 1(wall);
        nFaces          50;
        startFace       312690;
    }
    outlet
    {
        type            wall;
        inGroups        List<word> 1(wall);
        nFaces          50;
        startFace       312740;
    }
    walls
    {
        type            wall;
        inGroups        List<word> 1(wall);
        nFaces          12920;
        startFace       312790;
    }
    back
    {
        type            symmetry;
        inGroups        List<word> 1(symmetry);
        nFaces          7200;
        startFace       325710;
    }
)

// ************************************************************************* //
