/*--------------------------------*- C++ -*----------------------------------*\
  =========                 |
  \\      /  F ield         | OpenFOAM: The Open Source CFD Toolbox
   \\    /   O peration     | Website:  https://openfoam.org
    \\  /    A nd           | Version:  11
     \\/     M anipulation  |
\*---------------------------------------------------------------------------*/
FoamFile
{
    format      ascii;
    class       volScalarField;
    location    "0/Air";
    object      T;
}
// * * * * * * * * * * * * * * * * * * * * * * * * * * * * * * * * * * * * * //

dimensions      [ 0 0 0 1 0 0 0 ];

internalField   uniform 298;

boundaryField
{
    inlet
    {
        type            fixedValue;
        value           uniform 298;
    }
    outlet
    {
        type            fixedValue;
        value           uniform 298;
        inletValue      uniform 298;
    }
    walls
    {
        type            zeroGradient;
        value           uniform 298;
    }
    Air_to_battery1
    {
        type            compressible::turbulentTemperatureCoupledBaffleMixed;
        value           uniform 298;
    }
}


// ************************************************************************* //
