/*--------------------------------*- C++ -*----------------------------------*\
  =========                 |
  \\      /  F ield         | OpenFOAM: The Open Source CFD Toolbox
   \\    /   O peration     | Website:  https://openfoam.org
    \\  /    A nd           | Version:  11
     \\/     M anipulation  |
\*---------------------------------------------------------------------------*/
FoamFile
{
    format      ascii;
    class       volVectorField;
    location    "0/Air";
    object      U;
}
// * * * * * * * * * * * * * * * * * * * * * * * * * * * * * * * * * * * * * //

dimensions      [ 0 1 -1 0 0 0 0 ];

internalField   uniform ( 0 0 0 );

boundaryField
{
    inlet
    {
        type            fixedValue;
        value           uniform ( 0 0 0 );
    }
    outlet
    {
        type            inletOutlet;
        value           uniform ( 0 0 0 );
        inletValue      uniform ( 0 0 0 );
    }
    walls
    {
        type            noSlip;
    }
    Air_to_battery1
    {
        type            noSlip;
        value           uniform ( 0 0 0 );
    }
}


// ************************************************************************* //
